CM Turnstile tuned, crossed half-wave dipoles
CM Feed at center segments of X and Y dipoles
CM Units: meters, freq sweep 430-440 MHz

GW 1 31  -0.1601925  0.0  0.0020   -0.08009625  0.0  0.0020   0.001
GW 2 7   -0.08009625 0.0  0.0020    0.08009625  0.0  0.0020   0.001
GW 3 31   0.08009625 0.0  0.0020    0.1601925   0.0  0.0020   0.001

GW 4 31   0.0 -0.1601925 -0.0020    0.0 -0.08009625 -0.0020  0.001
GW 5 7    0.0 -0.08009625 -0.0020   0.0  0.08009625 -0.0020  0.001
GW 6 31   0.0  0.08009625 -0.0020    0.0  0.1601925  -0.0020  0.001

GW 7 9    0.0  0.0  0.0020    0.0  0.0 -0.0020    0.001

GE 0

CM Feed: X dipole segment 4, Y dipole segment 4 with 90deg phase diff
EX 0 2 4 0  1.0 0.0
EX 0 5 4 0  0.0 1.0

CM Frequency sweep 430,435,440 MHz
FR 0 3 0 0 430.0 435.0 440.0

CM Far-field: 1 deg step, phi=0, distance=1000 m
RP 0 181 1 1000 0 5 0 1 0

EN
